<?xml version="1.0" encoding="UTF-8"?>

<!-- generated on 2026-06-17 10:01:42 by Eclipse SUMO GUI Version 1.22.0
<sumoConfiguration xmlns:xsi="http://www.w3.org/2001/XMLSchema-instance" xsi:noNamespaceSchemaLocation="http://sumo.dlr.de/xsd/sumoConfiguration.xsd">

    <input>
        <net-file value="C:\Users\UBordeaux\Desktop\urban-digital-twin\simulations\sumo\map.net.xml"/>
        <route-files value="C:\Users\UBordeaux\Desktop\urban-digital-twin\simulations\sumo\routes.rou.xml"/>
    </input>

    <output>
        <fcd-output value="C:\Users\UBordeaux\Desktop\urban-digital-twin\simulations\sumo\fcd.xml"/>
        <fcd-output.geo value="true"/>
    </output>

</sumoConfiguration>
