<?xml version="1.0" encoding="UTF-8"?>

<!-- generated on 2026-06-17 12:12:58 by Eclipse SUMO netedit Version 1.22.0
-->

<routes xmlns:xsi="http://www.w3.org/2001/XMLSchema-instance" xsi:noNamespaceSchemaLocation="http://sumo.dlr.de/xsd/routes_file.xsd">
    <!-- VTypes -->
    <vType id="301" length="4.68" width="2.32" height="1.47" color="0,0,128"/>
    <vType id="302" length="4.68" width="2.32" height="1.47" color="132,132,132"/>
    <vType id="303" length="4.06" width="1.84" color="66,66,66"/>
    <vType id="304" length="4.07" width="1.84" color="228,58,58"/>
    <vType id="305" length="4.81" guiShape="passenger" width="2.16" color="245,215,50"/>
    <vType id="306" length="4.81" width="2.16" color="229,229,229"/>
    <vType id="EgoBike" length="1.80" vClass="bicycle" color="16,186,16"/>
    <vType id="EgoCar" length="4.81" width="2.16" color="69,56,56"/>
    <vType id="EgoScooter" length="1.09" vClass="scooter"/>
    <!-- Vehicles, persons and containers (sorted by depart) -->
    <flow id="f_1" type="301" begin="0.00" color="255,0,8" from="26587170#0" to="189836158#1" via="23157970#0 163984489#0 163984489#1 182069803#3 289522848 -23157971#4 177469321 189836158#0" end="3600.00" number="500"/>
    <trip id="f_0.0" type="EgoCar" depart="540.00" color="252,255,0" from="-1446341935#2" to="1446341935#1" via="-1446341935#0 -1188020953 -604385376#1 126386654#1 182069803#3 289522848 185464347#0 126386653#1 -26586776 23170005 23458636#1 26587170#0 23157970#0 163984489#0 163984489#1 604385376#1 182198513#2 626349823#1 1446341935#0"/>
</routes>
